Version 4
SHEET 1 1256 1344
WIRE -80 224 -160 224
WIRE 0 224 -16 224
WIRE 112 224 80 224
WIRE 144 224 112 224
WIRE 224 224 144 224
WIRE 560 224 480 224
WIRE 720 224 560 224
WIRE 832 224 720 224
WIRE 832 336 832 224
WIRE 144 384 144 224
WIRE 560 384 560 224
WIRE -128 544 -160 544
WIRE 144 544 144 448
WIRE 144 544 -128 544
WIRE 352 544 352 320
WIRE 352 544 144 544
WIRE 560 544 560 448
WIRE 560 544 352 544
WIRE 832 544 832 416
WIRE 832 544 560 544
WIRE -128 560 -128 544
WIRE 48 704 -160 704
WIRE 320 704 48 704
WIRE 320 752 320 704
WIRE 320 928 320 832
WIRE -160 976 -160 704
WIRE 320 1088 320 992
WIRE 48 1136 48 704
WIRE 256 1136 48 1136
WIRE 272 1136 256 1136
WIRE 48 1168 48 1136
WIRE -160 1280 -160 1056
WIRE 48 1280 48 1248
WIRE 48 1280 -160 1280
WIRE 320 1280 320 1184
WIRE 320 1280 48 1280
WIRE 48 1312 48 1280
FLAG -128 560 0
FLAG -160 224 Vac
FLAG 720 224 5V
FLAG 112 224 Vin
FLAG 48 1312 0
SYMBOL PowerProducts/LT1085-5 352 224 R0
SYMATTR InstName Reg1
SYMBOL res 816 320 R0
SYMATTR InstName RL1
SYMATTR Value 50
SYMBOL res 96 208 R90
WINDOW 0 0 56 VBottom 2
WINDOW 3 32 56 VTop 2
SYMATTR InstName Rin1
SYMATTR Value 10
SYMBOL diode -80 240 R270
WINDOW 0 32 32 VTop 2
WINDOW 3 0 32 VBottom 2
SYMATTR InstName D1
SYMATTR Value 1N4148
SYMBOL cap 128 384 R0
SYMATTR InstName Cin1
SYMATTR Value 47µ
SYMATTR SpiceLine Rser=0.001
SYMBOL cap 544 384 R0
SYMATTR InstName Cout1
SYMATTR Value 10µ
SYMATTR SpiceLine Rser=0.001
SYMBOL res 32 1152 R0
SYMATTR InstName R1
SYMBOL res 304 736 R0
SYMATTR InstName R2
SYMBOL diode 304 928 R0
SYMATTR InstName D2
SYMBOL npn 256 1088 R0
SYMATTR InstName Q1
SYMBOL voltage -160 960 R0
SYMATTR InstName V1
SYMATTR Value 6
TEXT -152 664 Left 2 ;LDR Circuit
TEXT -184 128 Left 2 ;DC Regulator Circuit\n**change values**
